.model bc547b NPN BF=500 NE=1.3 ISE=9.72F IKF=80M IS=20F VAF=50 ikr=12m
       + BR=10 NC=2 VAR=10 RB=280 RE=1 RC=40 VJE=.48 tr=.3u tf=.5n
       +cje=12p vje=.48 mje=.5 cjc=6p vjc=.7 isc=47p kf=2f
