*******************************
* Begin .SUBCKT model         *
* spice-sdb ver 4.28.2007     *
*******************************
.SUBCKT CONN_01x04 1 2 3 4
.ends CONN_01x04
*******************************
