*******************************
* Begin .SUBCKT model         *
* spice-sdb ver 4.28.2007     *
*******************************
.SUBCKT CONN_01x03 1 2 3
.ends CONN_01x03
*******************************
