*******************************
* Begin .SUBCKT model         *
* spice-sdb ver 4.28.2007     *
*******************************
.SUBCKT LM2931A 1 2 3 
VReg 3 2 3.3V
.ends LM2931A
*******************************
